Output_case2/output_current_566.csv
# Output_case2\output_current_566.csv run at 2000-01-01 09:26:00 EST on 907 links
link_name,currA_mag,currA_angle,currB_mag,currB_angle,currC_mag,currC_angle
Source_Impedance,67.696925,-0.329217,50.622231,3.624631,49.304306,1.971477
TR1,67.696925,-0.329217,50.622231,3.624631,49.304306,1.971477
LINE1,1714.694720,-0.792716,1744.196939,3.267438,916.663104,1.210928
LINE2,1714.694720,-0.792716,1744.196939,3.267438,916.663104,1.210928
LINE3,1714.694720,-0.792716,1744.196939,3.267438,916.663104,1.210928
LINE4,1714.694720,-0.792716,1744.196939,3.267438,916.663104,1.210928
LINE5,1714.694720,-0.792716,1744.196939,3.267438,916.663104,1.210928
LINE6,1714.694720,-0.792716,1744.196939,3.267438,916.663104,1.210928
LINE7,1714.694720,-0.792716,1744.196939,3.267438,916.663104,1.210928
LINE8,1714.694720,-0.792716,1744.196939,3.267438,916.663104,1.210928
LINE9,1714.694720,-0.792716,1744.196939,3.267438,916.663104,1.210928
LINE10,1714.694720,-0.792716,1744.196939,3.267438,916.663104,1.210928
LINE11,1714.694720,-0.792716,1744.196939,3.267438,916.663104,1.210928
LINE12,1714.694720,-0.792716,1744.196939,3.267438,916.663104,1.210928
LINE13,1714.694720,-0.792716,1744.196939,3.267438,916.663104,1.210928
LINE14,1714.694720,-0.792716,1744.196939,3.267438,916.663104,1.210928
LINE15,0.000000,3.408118,0.000000,-1.007726,0.000000,-1.540230
LINE16,1714.694720,-0.792716,1744.196939,3.267438,916.663104,1.210928
LINE17,0.000000,2.871682,0.000000,-0.810330,0.000000,-1.564488
LINE18,1714.694720,-0.792716,1744.196939,3.267438,916.663104,1.210928
LINE19,0.000000,2.473160,0.000000,-0.346682,0.000000,4.701345
LINE20,1714.694720,-0.792716,1744.196939,3.267438,916.663104,1.210928
LINE21,0.000000,2.331263,0.000000,-0.488580,0.000000,4.708287
LINE22,1714.694720,-0.792716,1744.196939,3.267438,916.663104,1.210928
LINE23,0.000000,1.926371,0.000000,-0.810330,0.000000,-1.570733
LINE24,1714.694720,-0.792716,1744.196939,3.267438,916.663104,1.210928
LINE25,0.000000,1.545864,0.000000,-0.869086,0.000000,-1.541095
LINE26,120.990521,-0.892246,0.000000,-1.553638,0.000000,1.487506
LINE27,1594.348306,-0.785175,1744.196939,3.267438,916.663104,1.210928
LINE28,0.000000,2.009512,0.000000,-0.869086,0.000000,-1.502251
LINE29,60.482411,-0.892298,0.000000,3.769724,0.000000,1.527028
LINE30,60.508111,-0.892193,0.000000,-1.516275,0.000000,1.486399
LINE31,1594.348306,-0.785175,1744.196939,3.267438,916.663104,1.210928
LINE32,0.000000,1.812116,0.000000,-1.246957,0.000000,-1.489875
LINE33,60.482411,-0.892298,0.000000,-0.850176,0.000000,1.800036
LINE34,60.508111,-0.892193,0.000000,4.592732,0.000000,1.592832
LINE35,0.000000,2.015518,131.199946,3.277789,0.000000,1.623331
LINE36,1594.348306,-0.785175,1613.004593,3.266596,916.663104,1.210928
LINE37,0.000000,1.972492,0.000000,-1.132081,0.000000,-1.514656
LINE38,60.508111,-0.892193,0.000000,3.562095,0.000000,1.565019
LINE39,0.000000,1.985247,65.603396,3.277802,0.000000,1.606949
LINE40,0.000000,2.681865,65.596550,3.277776,0.000000,-1.570420
LINE41,1594.348306,-0.785175,1613.004593,3.266596,916.663104,1.210928
LINE42,0.000000,1.169232,0.000000,-0.005656,0.000000,1.964753
LINE43,0.000000,2.009512,0.000000,-0.810330,0.000000,-1.502251
LINE44,60.508111,-0.892193,0.000000,-1.274747,0.000000,1.572686
LINE45,0.000000,2.193743,65.603396,3.277802,0.000000,3.616575
LINE46,0.000000,3.561828,65.596550,3.277776,0.000000,4.645681
LINE47,1594.348306,-0.785175,1613.004593,3.266596,916.663104,1.210928
LINE48,0.000000,1.092234,0.000000,0.062819,0.000000,1.796686
LINE49,0.000000,2.736154,0.000000,-0.668433,0.000000,-1.548888
LINE50,60.508111,-0.892193,0.000000,3.025374,0.000000,2.532030
LINE51,0.000000,2.731621,65.603396,3.277802,0.000000,4.259150
LINE52,1594.348306,-0.785175,1613.004593,3.266596,916.663104,1.210928
LINE53,0.000000,1.970577,0.000000,-0.743095,0.000000,4.034505
LINE54,0.000000,1.358412,0.000000,0.012083,0.000000,1.852528
LINE55,0.000000,2.711769,0.000000,-0.488580,0.000000,-1.567958
LINE56,60.508111,-0.892193,0.000000,3.337285,0.000000,1.384048
LINE57,0.000000,2.495730,65.603396,3.277802,0.000000,1.799096
LINE58,1594.348306,-0.785175,1613.004593,3.266596,916.663104,1.210928
LINE59,0.000000,2.088631,0.000000,2.377958,0.000000,4.517939
LINE60,0.000000,0.995824,0.000000,-0.013896,0.000000,1.636778
LINE61,0.000000,2.871682,0.000000,-0.269911,0.000000,4.708287
LINE62,60.508111,-0.892193,0.000000,0.071278,0.000000,-1.480519
LINE63,0.000000,2.660991,65.603396,3.277802,0.000000,1.786768
LINE64,1458.215789,-0.778595,1613.004593,3.266596,916.663104,1.210928
LINE65,136.501829,-0.855535,0.000000,-0.143898,0.000000,-0.459219
LINE66,0.000000,2.009492,0.000000,-1.185328,0.000000,-1.476342
LINE67,0.000000,0.931685,0.000000,-0.061361,0.000000,1.708519
LINE68,0.000000,3.116661,0.000000,-0.488580,0.000000,-1.568949
LINE69,60.508111,-0.892193,0.000000,0.134636,0.000000,1.688935
LINE70,0.000000,3.083968,65.603396,3.277802,0.000000,-1.554838
LINE71,1458.215789,-0.778595,1613.004593,3.266596,916.663104,1.210928
LINE72,68.250914,-0.855535,0.000000,-0.945259,0.000000,4.638908
LINE73,68.250914,-0.855535,0.000000,-0.946844,0.000000,-1.567254
LINE74,0.000000,2.119499,0.000000,-1.411787,0.000000,-1.163048
LINE75,0.000000,1.037037,0.000000,-0.007542,0.000000,1.554394
LINE76,0.000000,3.138396,0.000000,-0.459602,0.000000,4.700477
LINE77,0.000000,2.995716,65.603396,3.277802,0.000000,0.960087
LINE78,1458.215789,-0.778595,1613.004593,3.266596,916.663104,1.210928
LINE79,0.000000,2.188801,0.000000,-0.537183,0.000000,-0.912749
LINE80,0.000000,1.055697,0.000000,-0.039824,0.000000,1.655165
LINE81,0.000000,3.085421,0.000000,-0.405438,0.000000,4.702607
LINE82,0.000000,-0.539018,65.603396,3.277802,0.000000,2.595643
LINE83,1458.215789,-0.778595,1613.004593,3.266596,916.663104,1.210928
LINE84,0.000000,3.250896,0.000000,-1.025032,0.000000,0.400813
LINE85,0.000000,1.067420,0.000000,-0.048281,0.000000,1.686579
LINE86,0.000000,3.142970,0.000000,-0.527775,0.000000,4.694401
LINE87,1458.215789,-0.778595,1613.004593,3.266596,916.663104,1.210928
LINE88,0.000000,3.211325,0.000000,-0.390014,0.000000,1.426304
LINE89,0.000000,1.064240,0.000000,-0.092923,0.000000,1.718135
LINE90,0.000000,3.281809,0.000000,-0.719670,0.000000,4.705312
LINE91,1458.215789,-0.778595,1613.004593,3.266596,916.663104,1.210928
LINE92,0.000000,1.020485,0.000000,0.154565,0.000000,2.177807
LINE93,0.000000,3.116661,0.000000,0.438716,0.000000,4.656217
LINE94,1458.215789,-0.778595,1613.004593,3.266596,916.663104,1.210928
LINE95,0.000000,1.065423,0.000000,-0.191358,0.000000,3.241701
LINE96,0.000000,2.653013,0.000000,2.653013,0.000000,-1.564488
LINE97,1458.215789,-0.778595,1613.004593,3.266596,916.663104,1.210928
LINE98,0.000000,1.914300,0.000000,-0.254706,0.000000,4.409768
LINE99,0.000000,1.545864,0.000000,1.545864,0.000000,1.670219
LINE100,1458.215789,-0.778595,1613.004593,3.266596,916.663104,1.210928
LINE101,0.000000,1.787689,0.000000,-1.334842,0.000000,-1.267831
LINE102,0.000000,0.000000,0.000000,0.000000,0.000000,3.116661
LINE103,71.325746,-0.840764,231.453676,3.281417,119.883405,1.214478
LINE104,1387.034914,-0.775400,1381.580595,3.264113,796.780567,1.210394
LINE105,0.000000,2.128799,0.000000,4.587864,0.000000,-1.153014
LINE106,71.325746,-0.840764,231.453676,3.281417,119.883405,1.214478
LINE107,1387.034914,-0.775400,1381.580595,3.264113,796.780567,1.210394
LINE108,0.000000,3.033051,0.000000,-0.281289,0.000000,-1.415522
LINE109,71.325746,-0.840764,231.453676,3.281417,119.883405,1.214478
LINE110,1387.034914,-0.775400,1381.580595,3.264113,796.780567,1.210394
LINE111,0.000000,3.022272,0.000000,-0.838618,0.000000,-1.417696
LINE112,71.325746,-0.840764,231.453676,3.281417,119.883405,1.214478
LINE113,1387.034914,-0.775400,1381.580595,3.264113,796.780567,1.210394
LINE114,0.000000,3.049181,0.000000,-0.834515,0.000000,-1.419773
LINE115,71.325746,-0.840764,231.453676,3.281417,119.883405,1.214478
LINE116,73.435917,-0.832427,159.446192,3.282603,120.833127,1.215400
LINE117,1313.725046,-0.772214,1222.165214,3.261701,675.949225,1.209499
LINE118,0.000000,2.759009,0.000000,-0.880023,0.000000,-1.409928
LINE119,71.325746,-0.840764,231.453676,3.281417,119.883405,1.214478
LINE120,0.000000,2.653013,0.000000,0.116965,0.000000,3.871765
LINE121,73.435917,-0.832427,159.446192,3.282603,120.833127,1.215400
LINE122,1313.725046,-0.772214,1222.165214,3.261701,675.949225,1.209499
LINE123,0.000000,1.069448,0.000000,-0.967955,0.000000,-1.480514
LINE124,71.325746,-0.840764,231.453676,3.281417,119.883405,1.214478
LINE125,0.000000,2.473160,0.000000,0.058209,0.000000,4.422969
LINE126,73.435917,-0.832427,159.446192,3.282603,120.833127,1.215400
LINE127,1313.725046,-0.772214,1222.165214,3.261701,675.949225,1.209499
LINE128,0.000000,0.827497,0.000000,-1.326660,0.000000,-1.315331
LINE129,71.325746,-0.840764,231.453676,3.281417,119.883405,1.214478
LINE130,0.000000,2.653013,0.000000,0.099423,0.000000,4.542645
LINE131,73.435917,-0.832427,0.000000,0.993585,0.000000,1.647175
LINE132,0.000000,3.840214,159.446192,3.282603,120.833127,1.215400
LINE133,1313.725046,-0.772214,1222.165214,3.261701,675.949225,1.209499
LINE134,0.000000,1.730544,0.000000,-1.098071,0.000000,-1.398029
LINE135,71.325746,-0.840764,231.453676,3.281417,119.883405,1.214478
LINE136,0.000000,2.331263,0.000000,0.140217,0.000000,4.625038
LINE137,73.435917,-0.832427,0.000000,0.969345,0.000000,1.645459
LINE138,0.000000,3.846513,159.446192,3.282603,120.833127,1.215400
LINE139,1313.725046,-0.772214,1222.165214,3.261701,675.949225,1.209499
LINE140,0.000000,1.773088,0.000000,-1.313831,0.000000,-1.409448
LINE141,71.325746,-0.840764,231.453676,3.281417,119.883405,1.214478
LINE142,0.000000,2.331263,0.000000,0.058209,0.000000,4.589557
LINE143,73.435917,-0.832427,0.000000,1.122344,0.000000,1.640791
LINE144,0.000000,3.836715,159.446192,3.282603,120.833127,1.215400
LINE145,1313.725046,-0.772214,1222.165214,3.261701,675.949225,1.209499
LINE146,0.000000,1.402975,0.000000,-1.011485,0.000000,-1.538976
LINE147,71.325746,-0.840764,231.453676,3.281417,119.883405,1.214478
LINE148,0.000000,2.473160,0.000000,0.172464,0.000000,4.625038
LINE149,73.435917,-0.832427,0.000000,0.946614,0.000000,1.637836
LINE150,0.000000,3.908247,0.000000,1.754284,120.833127,1.215400
LINE151,0.000000,3.516829,159.446192,3.282603,0.000000,-1.132801
LINE152,1313.725046,-0.772214,1222.165214,3.261701,675.949225,1.209499
LINE153,0.000000,0.317842,0.000000,-1.149451,0.000000,4.399668
LINE154,71.325746,-0.840764,231.453676,3.281417,119.883405,1.214478
LINE155,0.000000,2.331263,0.000000,0.220047,0.000000,4.632824
LINE156,73.435917,-0.832427,0.000000,0.728466,0.000000,1.640702
LINE157,0.000000,3.899057,0.000000,1.756774,120.833127,1.215400
LINE158,0.000000,3.504682,159.446192,3.282603,0.000000,-1.196047
LINE159,1313.725046,-0.772214,1222.165214,3.261701,675.949225,1.209499
LINE160,0.000000,0.306120,0.000000,-1.117060,0.000000,-0.284665
LINE161,0.000000,1.726769,76.554015,3.280774,0.000000,4.701447
LINE162,71.325746,-0.840764,154.899685,3.281734,119.883405,1.214478
LINE163,0.000000,2.331263,0.000000,0.296819,0.000000,4.642844
LINE164,73.435917,-0.832427,0.000000,0.900000,0.000000,1.640475
LINE165,0.000000,3.895073,0.000000,1.754929,120.833127,1.215400
LINE166,0.000000,3.486601,159.446192,3.282603,0.000000,-1.309744
LINE167,1313.725046,-0.772214,1222.165214,3.261701,675.949225,1.209499
LINE168,0.000000,4.254681,0.000000,1.278266,0.000000,0.072405
LINE169,0.000000,1.497401,76.554015,3.280774,0.000000,4.688322
LINE170,71.325746,-0.840764,154.899685,3.281734,119.883405,1.214478
LINE171,0.000000,2.653013,0.000000,0.140217,0.000000,4.649975
LINE172,73.435917,-0.832427,0.000000,0.814604,0.000000,1.646198
LINE173,0.000000,3.750036,0.000000,1.564231,0.000000,4.250496
LINE174,0.000000,-0.815431,0.000000,3.325421,120.833127,1.215400
LINE175,0.000000,3.262368,159.446192,3.282603,0.000000,-1.377599
LINE176,1313.725046,-0.772214,1222.165214,3.261701,675.949225,1.209499
LINE177,0.000000,3.962162,76.554015,3.280774,0.000000,-1.190152
LINE178,71.325746,-0.840764,154.899685,3.281734,0.000000,-1.496827
LINE179,0.000000,0.501137,0.000000,-0.149212,119.883405,1.214478
LINE180,0.000000,2.331263,0.000000,-0.024932,0.000000,4.563102
LINE181,73.435917,-0.832427,0.000000,0.763517,0.000000,1.655019
LINE182,0.000000,3.772101,0.000000,1.530752,0.000000,4.170674
LINE183,0.000000,-0.828806,0.000000,3.325616,120.833127,1.215400
LINE184,0.000000,3.331586,159.446192,3.282603,0.000000,-1.408930
LINE185,1313.725046,-0.772214,1222.165214,3.261701,675.949225,1.209499
LINE186,71.325746,-0.840764,154.899685,3.281734,0.000000,4.689186
LINE187,0.000000,0.524666,0.000000,-0.150407,119.883405,1.214478
LINE188,0.000000,2.331263,0.000000,-0.024932,0.000000,4.625038
LINE189,73.435917,-0.832427,0.000000,0.799376,0.000000,1.651482
LINE190,0.000000,2.348979,0.000000,0.994175,0.000000,-1.034182
LINE191,0.000000,3.888981,0.000000,1.512477,0.000000,3.803583
LINE192,0.000000,-0.880734,0.000000,3.342035,120.833127,1.215400
LINE193,0.000000,3.356205,159.446192,3.282603,0.000000,-1.382434
LINE194,1313.725046,-0.772214,1222.165214,3.261701,675.949225,1.209499
LINE195,71.325746,-0.840764,154.899685,3.281734,0.000000,4.588542
LINE196,0.000000,4.464893,0.000000,1.788708,59.929836,1.214429
LINE197,0.000000,0.484967,0.000000,-0.146777,59.953569,1.214527
LINE198,0.000000,3.116661,0.000000,0.438716,0.000000,4.563102
LINE199,73.435917,-0.832427,0.000000,0.633921,0.000000,1.657641
LINE200,0.000000,-1.100075,0.000000,-0.355618,0.000000,2.216334
LINE201,0.000000,4.056835,0.000000,1.511376,0.000000,3.153200
LINE202,0.000000,-0.956858,0.000000,3.308965,120.833127,1.215400
LINE203,0.000000,3.324682,159.446192,3.282603,0.000000,-1.226488
LINE204,1313.725046,-0.772214,1222.165214,3.261701,675.949225,1.209499
LINE205,71.325746,-0.840764,0.000000,3.334140,0.000000,1.487282
LINE206,0.000000,0.029868,154.899685,3.281734,0.000000,4.466680
LINE207,0.000000,-0.213913,0.000000,-0.213913,59.929836,1.214429
LINE208,0.000000,0.828374,0.000000,-0.283243,59.953569,1.214527
LINE209,0.000000,3.116661,0.000000,1.545864,0.000000,4.687457
LINE210,73.435917,-0.832427,0.000000,0.801925,0.000000,1.641185
LINE211,0.000000,3.844681,0.000000,1.662667,0.000000,3.173965
LINE212,0.000000,-1.061289,0.000000,3.315033,120.833127,1.215400
LINE213,0.000000,3.370052,159.446192,3.282603,0.000000,-1.311333
LINE214,1313.725046,-0.772214,1222.165214,3.261701,675.949225,1.209499
LINE215,71.325746,-0.840764,0.000000,4.091753,0.000000,2.198583
LINE216,0.000000,-0.136479,154.899685,3.281734,0.000000,4.097705
LINE217,0.000000,-0.124125,0.000000,-0.539863,59.953569,1.214527
LINE218,0.000000,0.000000,0.000000,0.000000,0.000000,3.116661
LINE219,73.435917,-0.832427,0.000000,0.753302,0.000000,1.642140
LINE220,0.000000,3.906230,0.000000,1.108057,0.000000,3.023483
LINE221,0.000000,-1.017122,0.000000,3.348258,120.833127,1.215400
LINE222,0.000000,3.379907,159.446192,3.282603,0.000000,-1.349915
LINE223,1313.725046,-0.772214,1222.165214,3.261701,675.949225,1.209499
LINE224,71.325746,-0.840764,0.000000,-1.522699,0.000000,4.683802
LINE225,0.000000,2.010563,154.899685,3.281734,0.000000,4.127041
LINE226,0.000000,-0.110042,0.000000,-1.132535,59.953569,1.214527
LINE227,73.435917,-0.832427,0.000000,1.055208,0.000000,1.639077
LINE228,0.000000,3.857827,0.000000,0.906254,0.000000,2.930504
LINE229,0.000000,-1.001717,0.000000,3.347789,120.833127,1.215400
LINE230,0.000000,3.356000,159.446192,3.282603,0.000000,-1.328150
LINE231,1313.725046,-0.772214,1222.165214,3.261701,675.949225,1.209499
LINE232,0.000000,-1.272679,154.899685,3.281734,0.000000,1.629482
LINE233,0.000000,-1.340117,0.000000,2.108621,0.000000,-1.554730
LINE234,0.000000,-0.152593,0.000000,0.232237,59.953569,1.214527
LINE235,73.435917,-0.832427,0.000000,2.977866,0.000000,1.666720
LINE236,0.000000,3.551840,0.000000,0.738208,0.000000,2.842419
LINE237,0.000000,-0.904317,0.000000,3.357116,120.833127,1.215400
LINE238,0.000000,3.229239,159.446192,3.282603,0.000000,-1.013187
LINE239,1313.725046,-0.772214,1222.165214,3.261701,675.949225,1.209499
LINE240,0.000000,-1.032781,154.899685,3.281734,0.000000,1.589647
LINE241,0.000000,0.052173,0.000000,-0.421943,59.953569,1.214527
LINE242,73.435917,-0.832427,0.000000,2.218298,0.000000,1.631713
LINE243,0.000000,3.965764,0.000000,1.051941,0.000000,2.126024
LINE244,0.000000,-0.948374,0.000000,3.292775,120.833127,1.215400
LINE245,0.000000,3.153117,159.446192,3.282603,0.000000,-1.319593
LINE246,1313.725046,-0.772214,1222.165214,3.261701,675.949225,1.209499
LINE247,0.000000,3.248412,77.449842,3.281734,0.000000,4.555887
LINE248,0.000000,3.248612,77.449842,3.281734,0.000000,4.265437
LINE249,0.000000,-0.517182,0.000000,-0.266936,59.953569,1.214527
LINE250,73.435917,-0.832427,0.000000,2.808911,0.000000,1.634183
LINE251,0.000000,3.715642,0.000000,1.511329,0.000000,2.144136
LINE252,0.000000,-0.994818,0.000000,3.259025,120.833127,1.215400
LINE253,0.000000,3.140376,159.446192,3.282603,0.000000,-1.293750
LINE254,78.389596,-0.818154,0.000000,-0.157601,0.000000,4.374053
LINE255,1235.423401,-0.769300,1222.165214,3.261701,675.949225,1.209499
LINE256,0.000000,-0.064489,0.000000,-0.903601,59.953569,1.214527
LINE257,73.435917,-0.832427,0.000000,3.472102,0.000000,1.612877
LINE258,0.000000,3.979431,0.000000,2.258135,0.000000,2.335695
LINE259,0.000000,-1.048297,0.000000,3.207379,120.833127,1.215400
LINE260,0.000000,3.054709,159.446192,3.282603,0.000000,-0.633614
LINE261,78.389596,-0.818154,0.000000,-0.107521,0.000000,4.344053
LINE262,1235.423401,-0.769300,1222.165214,3.261701,675.949225,1.209499
LINE263,0.000000,2.373606,0.000000,4.519451,59.953569,1.214527
LINE264,73.435917,-0.832427,0.000000,-0.274045,0.000000,1.458443
LINE265,0.000000,4.075649,0.000000,4.178439,0.000000,2.235966
LINE266,0.000000,-1.117326,0.000000,3.168038,120.833127,1.215400
LINE267,0.000000,0.281756,79.767030,3.282739,0.000000,1.571275
LINE268,0.000000,3.098559,79.679163,3.282467,0.000000,-1.408128
LINE269,78.389596,-0.818154,0.000000,-0.219630,0.000000,4.394435
LINE270,0.000000,4.014099,0.000000,4.194787,60.836715,1.216932
LINE271,1235.423401,-0.769300,1222.165214,3.261701,615.114356,1.208764
LINE272,73.435917,-0.832427,0.000000,1.754941,0.000000,1.587830
LINE273,0.000000,-0.238401,0.000000,1.543668,0.000000,2.099717
LINE274,0.000000,-1.019152,0.000000,3.197112,120.833127,1.215400
LINE275,0.000000,3.321112,79.767030,3.282739,0.000000,4.492144
LINE276,0.000000,3.355271,79.679163,3.282467,0.000000,-1.463921
LINE277,78.389596,-0.818154,0.000000,-0.070940,0.000000,4.400451
LINE278,0.000000,3.098684,0.000000,3.737830,60.836715,1.216932
LINE279,1235.423401,-0.769300,1222.165214,3.261701,615.114356,1.208764
LINE280,73.435917,-0.832427,0.000000,4.326027,0.000000,-1.523380
LINE281,0.000000,-0.031486,0.000000,4.088312,0.000000,2.241754
LINE282,0.000000,-0.649837,0.000000,2.966546,120.833127,1.215400
LINE283,0.000000,3.249174,79.679163,3.282467,0.000000,-1.503774
LINE284,78.389596,-0.818154,0.000000,-0.104930,0.000000,4.472178
LINE285,0.000000,-0.599361,0.000000,3.792978,60.836715,1.216932
LINE286,623.308351,-0.768324,392.697435,3.245237,120.309939,1.216652
LINE287,612.115648,-0.770293,829.546196,3.269495,494.809070,1.206846
LINE288,73.435917,-0.832427,0.000000,3.418858,0.000000,1.627110
LINE289,0.000000,0.306482,0.000000,4.478549,0.000000,-0.112952
LINE290,0.000000,-0.596243,0.000000,0.739070,60.451328,1.215542
LINE291,0.000000,-1.021666,0.000000,4.222900,60.381801,1.215258
LINE292,0.000000,-1.039740,79.679163,3.282467,0.000000,-1.546757
LINE293,78.389596,-0.818154,0.000000,-0.066887,0.000000,4.484893
LINE294,0.000000,4.600357,0.000000,3.997379,60.836715,1.216932
LINE295,623.308351,-0.768324,392.697435,3.245237,120.309939,1.216652
LINE296,612.115648,-0.770293,829.546196,3.269495,494.809070,1.206846
LINE297,0.000000,-1.514339,0.000000,1.391803,60.451328,1.215542
LINE298,0.000000,-0.859979,0.000000,3.009232,60.381801,1.215258
LINE299,0.000000,4.092222,79.679163,3.282467,0.000000,-1.389972
LINE300,78.389596,-0.818154,0.000000,-0.243714,0.000000,4.484872
LINE301,0.000000,-1.489199,0.000000,4.037729,60.836715,1.216932
LINE302,623.308351,-0.768324,392.697435,3.245237,120.309939,1.216652
LINE303,612.115648,-0.770293,829.546196,3.269495,494.809070,1.206846
LINE304,0.000000,-0.897916,0.000000,3.718152,60.451328,1.215542
LINE305,0.000000,0.696101,0.000000,1.209403,60.381801,1.215258
LINE306,0.000000,3.994814,79.679163,3.282467,0.000000,4.111907
LINE307,78.389596,-0.818154,0.000000,-0.158697,0.000000,4.499275
LINE308,0.000000,4.526712,0.000000,4.612530,60.836715,1.216932
LINE309,623.308351,-0.768324,392.697435,3.245237,120.309939,1.216652
LINE310,612.115648,-0.770293,829.546196,3.269495,494.809070,1.206846
LINE311,0.000000,3.032815,0.000000,2.846156,60.451328,1.215542
LINE312,0.000000,0.031724,0.000000,0.621976,60.381801,1.215258
LINE313,0.000000,2.287871,79.679163,3.282467,0.000000,1.573547
LINE314,78.389596,-0.818154,0.000000,-0.190987,0.000000,4.478786
LINE315,0.000000,3.634485,0.000000,3.802514,60.836715,1.216932
LINE316,163.721861,-0.805604,0.000000,2.746485,0.000000,1.936839
LINE317,459.740744,-0.755051,392.697435,3.245237,120.309939,1.216652
LINE318,612.115648,-0.770293,829.546196,3.269495,494.809070,1.206846
LINE319,0.000000,-0.400918,0.000000,0.639799,60.451328,1.215542
LINE320,0.000000,4.629838,0.000000,-0.035302,60.381801,1.215258
LINE321,78.389596,-0.818154,0.000000,-0.150718,0.000000,4.494902
LINE322,0.000000,3.034597,0.000000,0.065443,60.836715,1.216932
LINE323,163.721861,-0.805604,0.000000,2.761314,0.000000,1.984415
LINE324,459.740744,-0.755051,392.697435,3.245237,120.309939,1.216652
LINE325,612.115648,-0.770293,829.546196,3.269495,494.809070,1.206846
LINE326,0.000000,3.026076,0.000000,0.115203,60.381801,1.215258
LINE327,78.389596,-0.818154,0.000000,-0.035352,0.000000,4.506545
LINE328,0.000000,-0.453940,0.000000,2.410942,60.836715,1.216932
LINE329,163.721861,-0.805604,0.000000,2.859913,0.000000,1.918878
LINE330,0.000000,4.545788,0.000000,3.190576,60.630804,1.218876
LINE331,459.740744,-0.755051,392.697435,3.245237,59.679437,1.214394
LINE332,612.115648,-0.770293,829.546196,3.269495,494.809070,1.206846
LINE333,78.389596,-0.818154,0.000000,-0.155292,0.000000,4.481907
LINE334,0.000000,2.971487,0.000000,0.149990,60.836715,1.216932
LINE335,163.721861,-0.805604,0.000000,3.031403,0.000000,1.908990
LINE336,0.000000,0.010851,0.000000,3.979010,60.630804,1.218876
LINE337,0.000000,3.685103,89.707858,3.256460,0.000000,0.908133
LINE338,459.740744,-0.755051,302.996900,3.241914,59.679437,1.214394
LINE339,612.115648,-0.770293,829.546196,3.269495,494.809070,1.206846
LINE340,78.389596,-0.818154,0.000000,-0.137744,0.000000,4.480399
LINE341,0.000000,0.580683,0.000000,3.952926,60.836715,1.216932
LINE342,81.784893,-0.805833,0.000000,2.604164,0.000000,1.089732
LINE343,81.936972,-0.805376,0.000000,2.135268,0.000000,2.340791
LINE344,0.000000,3.686268,89.707858,3.256460,0.000000,0.885677
LINE345,459.740744,-0.755051,302.996900,3.241914,59.679437,1.214394
LINE346,612.115648,-0.770293,829.546196,3.269495,494.809070,1.206846
LINE347,78.389596,-0.818154,0.000000,-0.170339,0.000000,4.503638
LINE348,81.784893,-0.805833,0.000000,-0.541027,0.000000,1.866434
LINE349,81.936972,-0.805376,0.000000,2.515187,0.000000,1.692304
LINE350,0.000000,3.613416,89.707858,3.256460,0.000000,0.594364
LINE351,459.740744,-0.755051,302.996900,3.241914,59.679437,1.214394
LINE352,612.115648,-0.770293,829.546196,3.269495,494.809070,1.206846
LINE353,78.389596,-0.818154,0.000000,-0.125773,0.000000,4.508427
LINE354,81.936972,-0.805376,0.000000,0.293665,0.000000,1.365776
LINE355,0.000000,3.769726,89.707858,3.256460,0.000000,-1.115563
LINE356,459.740744,-0.755051,302.996900,3.241914,59.679437,1.214394
LINE357,612.115648,-0.770293,829.546196,3.269495,494.809070,1.206846
LINE358,78.389596,-0.818154,0.000000,0.191819,0.000000,4.469465
LINE359,81.936972,-0.805376,0.000000,2.652597,0.000000,1.516085
LINE360,0.000000,3.135915,89.707858,3.256460,0.000000,-0.684364
LINE361,459.740744,-0.755051,302.996900,3.241914,59.679437,1.214394
LINE362,612.115648,-0.770293,829.546196,3.269495,494.809070,1.206846
LINE363,78.389596,-0.818154,0.000000,2.622872,0.000000,4.341803
LINE364,81.936972,-0.805376,0.000000,3.994434,0.000000,1.517714
LINE365,0.000000,3.402480,89.707858,3.256460,0.000000,-1.467854
LINE366,459.740744,-0.755051,302.996900,3.241914,59.679437,1.214394
LINE367,612.115648,-0.770293,829.546196,3.269495,494.809070,1.206846
LINE368,78.389596,-0.818154,0.000000,3.398850,0.000000,4.593052
LINE369,81.936972,-0.805376,0.000000,0.376565,0.000000,1.551420
LINE370,0.000000,3.302591,89.707858,3.256460,0.000000,-1.482594
LINE371,459.740744,-0.755051,302.996900,3.241914,59.679437,1.214394
LINE372,612.115648,-0.770293,829.546196,3.269495,494.809070,1.206846
LINE373,78.389596,-0.818154,0.000000,0.405773,0.000000,4.699719
LINE374,81.936972,-0.805376,0.000000,0.465180,0.000000,1.836515
LINE375,0.000000,3.283120,89.707858,3.256460,0.000000,-1.549210
LINE376,459.740744,-0.755051,302.996900,3.241914,59.679437,1.214394
LINE377,612.115648,-0.770293,829.546196,3.269495,433.510000,1.205549
LINE378,0.000000,0.104358,0.000000,1.478055,61.302013,1.216018
LINE379,78.389596,-0.818154,0.000000,-1.275940,0.000000,4.597220
LINE380,81.936972,-0.805376,0.000000,1.085962,0.000000,4.660571
LINE381,0.000000,3.288268,89.707858,3.256460,0.000000,-1.532697
LINE382,459.740744,-0.755051,302.996900,3.241914,59.679437,1.214394
LINE383,612.115648,-0.770293,829.546196,3.269495,433.510000,1.205549
LINE384,0.000000,-0.144712,0.000000,2.953296,61.302013,1.216018
LINE385,0.000000,2.227939,0.000000,0.469174,0.000000,4.304120
LINE386,78.389596,-0.818154,0.000000,-0.128843,0.000000,3.311788
LINE387,81.936972,-0.805376,0.000000,4.020808,0.000000,4.587090
LINE388,0.000000,3.397629,89.707858,3.256460,0.000000,4.689643
LINE389,459.740744,-0.755051,302.996900,3.241914,59.679437,1.214394
LINE390,612.115648,-0.770293,829.546196,3.269495,433.510000,1.205549
LINE391,0.000000,-0.153455,0.000000,2.960716,61.302013,1.216018
LINE392,0.000000,2.200973,0.000000,0.481834,0.000000,4.305324
LINE393,0.000000,3.412387,89.707858,3.256460,0.000000,-1.545515
LINE394,459.740744,-0.755051,302.996900,3.241914,59.679437,1.214394
LINE395,0.000000,-0.642629,0.000000,0.975974,123.282163,1.215233
LINE396,612.115648,-0.770293,829.546196,3.269495,310.235914,1.201701
LINE397,0.000000,-0.192374,0.000000,2.987294,61.302013,1.216018
LINE398,0.000000,2.387375,0.000000,0.440947,0.000000,4.398607
LINE399,0.000000,2.072939,89.707858,3.256460,0.000000,1.563348
LINE400,459.740744,-0.755051,302.996900,3.241914,59.679437,1.214394
LINE401,0.000000,-0.718195,0.000000,0.957002,123.282163,1.215233
LINE402,612.115648,-0.770293,829.546196,3.269495,310.235914,1.201701
LINE403,0.000000,-0.215809,0.000000,2.738141,61.302013,1.216018
LINE404,0.000000,0.162416,0.000000,0.515330,0.000000,3.158377
LINE405,0.000000,0.084908,89.707858,3.256460,0.000000,1.590199
LINE406,459.740744,-0.755051,302.996900,3.241914,59.679437,1.214394
LINE407,0.000000,-0.703947,0.000000,0.801044,123.282163,1.215233
LINE408,612.115648,-0.770293,829.546196,3.269495,310.235914,1.201701
LINE409,0.000000,-0.184193,0.000000,3.854106,0.000000,-0.310668
LINE410,0.000000,-0.259915,0.000000,2.477222,61.302013,1.216018
LINE411,0.000000,1.553356,0.000000,0.379574,0.000000,1.713206
LINE412,459.740744,-0.755051,302.996900,3.241914,59.679437,1.214394
LINE413,0.000000,-0.989451,0.000000,0.898483,123.282163,1.215233
LINE414,612.115648,-0.770293,829.546196,3.269495,310.235914,1.201701
LINE415,0.000000,-0.055164,0.000000,3.826349,0.000000,0.070596
LINE416,0.000000,-0.029456,0.000000,1.991320,61.302013,1.216018
LINE417,0.000000,1.121189,0.000000,0.707286,0.000000,4.208515
LINE418,459.740744,-0.755051,302.996900,3.241914,59.679437,1.214394
LINE419,0.000000,-0.705679,0.000000,0.848168,123.282163,1.215233
LINE420,612.115648,-0.770293,829.546196,3.269495,310.235914,1.201701
LINE421,0.000000,-0.179382,0.000000,4.060201,0.000000,0.126990
LINE422,0.000000,0.146719,0.000000,1.229911,61.302013,1.216018
LINE423,0.000000,0.882378,0.000000,0.607527,0.000000,4.261147
LINE424,459.740744,-0.755051,302.996900,3.241914,59.679437,1.214394
LINE425,0.000000,0.581721,0.000000,0.145537,0.000000,1.912512
LINE426,0.000000,-0.745182,0.000000,0.915400,123.282163,1.215233
LINE427,612.115648,-0.770293,829.546196,3.269495,310.235914,1.201701
LINE428,0.000000,-0.346934,0.000000,4.011418,0.000000,0.854851
LINE429,0.000000,0.581287,0.000000,0.581287,61.302013,1.216018
LINE430,0.000000,0.827758,0.000000,0.550420,0.000000,4.245758
LINE431,459.740744,-0.755051,302.996900,3.241914,59.679437,1.214394
LINE432,0.000000,2.903923,0.000000,3.451172,0.000000,0.087159
LINE433,0.000000,-0.740209,0.000000,0.900930,123.282163,1.215233
LINE434,612.115648,-0.770293,829.546196,3.269495,310.235914,1.201701
LINE435,0.000000,-0.257083,0.000000,4.126132,0.000000,0.358433
LINE436,0.000000,2.921869,0.000000,1.605071,61.302013,1.216018
LINE437,0.000000,0.825643,0.000000,0.618951,0.000000,4.055335
LINE438,459.740744,-0.755051,302.996900,3.241914,59.679437,1.214394
LINE439,0.000000,3.173041,0.000000,-0.228379,0.000000,4.597447
LINE440,0.000000,-0.739399,0.000000,0.934566,123.282163,1.215233
LINE441,612.115648,-0.770293,829.546196,3.269495,310.235914,1.201701
LINE442,0.000000,-0.235165,0.000000,3.769703,0.000000,0.547929
LINE443,0.000000,0.270631,0.000000,0.270631,61.302013,1.216018
LINE444,0.000000,1.508852,0.000000,0.533746,0.000000,4.351663
LINE445,459.740744,-0.755051,302.996900,3.241914,59.679437,1.214394
LINE446,0.000000,3.486468,0.000000,0.196842,0.000000,0.675189
LINE447,0.000000,-0.735133,0.000000,0.977568,123.282163,1.215233
LINE448,612.115648,-0.770293,829.546196,3.269495,310.235914,1.201701
LINE449,0.000000,-0.343408,0.000000,3.959755,0.000000,0.649568
LINE450,0.000000,0.431143,0.000000,3.110268,61.302013,1.216018
LINE451,0.000000,1.512854,0.000000,0.529639,0.000000,3.920243
LINE452,459.740744,-0.755051,302.996900,3.241914,59.679437,1.214394
LINE453,0.000000,2.557709,0.000000,0.032462,0.000000,4.242069
LINE454,0.000000,-0.724069,0.000000,0.906750,123.282163,1.215233
LINE455,612.115648,-0.770293,829.546196,3.269495,310.235914,1.201701
LINE456,0.000000,-0.320946,0.000000,3.744874,0.000000,0.431349
LINE457,0.000000,1.888400,0.000000,1.888400,61.302013,1.216018
LINE458,0.000000,1.760707,0.000000,0.442161,0.000000,4.449335
LINE459,369.957402,-0.752146,302.996900,3.241914,59.679437,1.214394
LINE460,0.000000,1.700212,0.000000,1.700212,0.000000,-1.385107
LINE461,89.791333,-0.767018,0.000000,0.197718,0.000000,4.607696
LINE462,0.000000,-0.814828,0.000000,0.919433,123.282163,1.215233
LINE463,612.115648,-0.770293,829.546196,3.269495,310.235914,1.201701
LINE464,0.000000,-0.557004,0.000000,4.507314,0.000000,0.886603
LINE465,0.000000,1.934259,0.000000,0.331592,0.000000,4.335539
LINE466,369.957402,-0.752146,302.996900,3.241914,59.679437,1.214394
LINE467,0.000000,2.536830,0.000000,2.131473,0.000000,4.263519
LINE468,0.000000,-0.497813,0.000000,3.500272,0.000000,1.148827
LINE469,89.791333,-0.767018,0.000000,0.201062,0.000000,4.603207
LINE470,0.000000,-0.787091,0.000000,0.918609,123.282163,1.215233
LINE471,612.115648,-0.770293,829.546196,3.269495,310.235914,1.201701
LINE472,0.000000,-0.568194,0.000000,-0.436148,0.000000,1.135713
LINE473,0.000000,2.000869,0.000000,0.443766,0.000000,4.236638
LINE474,369.957402,-0.752146,302.996900,3.241914,59.679437,1.214394
LINE475,0.000000,0.064559,0.000000,3.238826,0.000000,1.694362
LINE476,89.791333,-0.767018,0.000000,0.525546,0.000000,4.613924
LINE477,0.000000,-0.730684,0.000000,0.890148,123.282163,1.215233
LINE478,612.115648,-0.770293,829.546196,3.269495,310.235914,1.201701
LINE479,0.000000,-0.507034,0.000000,-0.255809,0.000000,-1.458077
LINE480,0.000000,1.969152,0.000000,0.379313,0.000000,4.501346
LINE481,185.624792,-0.748289,302.996900,3.241914,59.679437,1.214394
LINE482,0.000000,4.061761,0.000000,0.206899,0.000000,4.358421
LINE483,184.335382,-0.756031,0.000000,0.509516,0.000000,4.546866
LINE484,89.791333,-0.767018,0.000000,1.250409,0.000000,4.604459
LINE485,0.000000,-0.855211,0.000000,0.953294,123.282163,1.215233
LINE486,612.115648,-0.770293,829.546196,3.269495,310.235914,1.201701
LINE487,0.000000,-0.816315,0.000000,-0.442004,0.000000,-1.287645
LINE488,0.000000,0.908832,0.000000,3.038263,0.000000,4.581632
LINE489,185.624792,-0.748289,302.996900,3.241914,59.679437,1.214394
LINE490,0.000000,2.128878,0.000000,-0.084795,0.000000,4.442715
LINE491,92.130792,-0.756130,0.000000,0.526631,0.000000,4.533334
LINE492,92.204591,-0.755933,0.000000,2.550138,0.000000,4.663628
LINE493,89.791333,-0.767018,0.000000,1.169645,0.000000,4.634159
LINE494,0.000000,4.333348,0.000000,1.048436,123.282163,1.215233
LINE495,612.115648,-0.770293,829.546196,3.269495,310.235914,1.201701
LINE496,0.000000,-0.235996,0.000000,-0.375335,0.000000,4.667542
LINE497,0.000000,1.507887,0.000000,-0.061277,0.000000,4.660612
LINE498,185.624792,-0.748289,302.996900,3.241914,59.679437,1.214394
LINE499,0.000000,2.939912,0.000000,-0.142587,0.000000,2.881202
LINE500,92.130792,-0.756130,0.000000,0.532793,0.000000,4.578920
LINE501,92.204591,-0.755933,0.000000,-0.075894,0.000000,1.542056
LINE502,89.791333,-0.767018,0.000000,1.419755,0.000000,4.611797
LINE503,0.000000,1.641036,0.000000,0.621936,123.282163,1.215233
LINE504,612.115648,-0.770293,829.546196,3.269495,310.235914,1.201701
LINE505,0.000000,-0.541186,0.000000,-0.042582,0.000000,4.546866
LINE506,0.000000,0.000000,0.000000,0.000000,0.000000,0.000000
LINE507,185.624792,-0.748289,302.996900,3.241914,59.679437,1.214394
LINE508,0.000000,3.214383,0.000000,2.281103,0.000000,1.088333
LINE509,92.130792,-0.756130,0.000000,0.436511,0.000000,4.548877
LINE510,89.791333,-0.767018,0.000000,2.198875,0.000000,4.600792
LINE511,0.000000,2.612738,0.000000,1.156765,123.282163,1.215233
LINE512,0.000000,-0.684054,93.588262,3.266394,0.000000,-1.462728
LINE513,612.115648,-0.770293,735.958441,3.269889,310.235914,1.201701
LINE514,0.000000,-0.422873,0.000000,-0.422873,0.000000,4.561963
LINE515,0.000000,0.615388,302.996900,3.241914,59.679437,1.214394
LINE516,0.000000,1.310764,0.000000,-1.413706,0.000000,3.657235
LINE517,185.624792,-0.748289,0.000000,3.958335,0.000000,0.196497
LINE518,92.130792,-0.756130,0.000000,1.139921,0.000000,4.442301
LINE519,89.791333,-0.767018,0.000000,2.174890,0.000000,4.595204
LINE520,0.000000,-0.377772,0.000000,2.004352,123.282163,1.215233
LINE521,0.000000,2.715908,93.588262,3.266394,0.000000,1.526736
LINE522,612.115648,-0.770293,735.958441,3.269889,310.235914,1.201701
LINE523,0.000000,-0.397356,0.000000,3.988378,0.000000,0.037053
LINE524,0.000000,0.602526,302.996900,3.241914,59.679437,1.214394
LINE525,0.000000,2.583357,0.000000,-0.076321,0.000000,4.464341
LINE526,185.624792,-0.748289,0.000000,3.955522,0.000000,0.640200
LINE527,92.130792,-0.756130,0.000000,1.182851,0.000000,1.906838
LINE528,89.791333,-0.767018,0.000000,2.760810,0.000000,4.588047
LINE529,0.000000,3.224781,0.000000,3.224781,123.282163,1.215233
LINE530,612.115648,-0.770293,735.958441,3.269889,310.235914,1.201701
LINE531,0.000000,-0.152049,0.000000,-1.006921,0.000000,-1.037678
LINE532,0.000000,0.575127,302.996900,3.241914,59.679437,1.214394
LINE533,0.000000,0.469319,0.000000,3.149944,0.000000,0.941407
LINE534,185.624792,-0.748289,0.000000,3.990033,0.000000,-0.412199
LINE535,92.130792,-0.756130,0.000000,0.688440,0.000000,3.770250
LINE536,89.791333,-0.767018,0.000000,3.181204,0.000000,4.550938
LINE537,0.000000,-0.361731,0.000000,3.053728,61.682176,1.215397
LINE538,0.000000,-0.730534,0.000000,2.931592,61.599988,1.215068
LINE539,612.115648,-0.770293,735.958441,3.269889,310.235914,1.201701
LINE540,0.000000,-0.612883,0.000000,2.970751,0.000000,-0.814838
LINE541,0.000000,0.624267,302.996900,3.241914,59.679437,1.214394
LINE542,0.000000,4.705196,0.000000,4.705196,0.000000,4.614465
LINE543,185.624792,-0.748289,0.000000,3.918640,0.000000,-0.434355
LINE544,92.130792,-0.756130,0.000000,4.332579,0.000000,1.725800
LINE545,89.791333,-0.767018,0.000000,3.194146,0.000000,4.551898
LINE546,0.000000,-0.155739,0.000000,3.123479,61.682176,1.215397
LINE547,612.115648,-0.770293,735.958441,3.269889,310.235914,1.201701
LINE548,0.000000,-0.449482,0.000000,2.600217,0.000000,-1.157483
LINE549,0.000000,0.636265,302.996900,3.241914,59.679437,1.214394
LINE550,0.000000,0.114157,0.000000,-0.474318,0.000000,1.651663
LINE551,92.803113,-0.748313,0.000000,3.927597,0.000000,-1.525493
LINE552,92.821679,-0.748264,0.000000,0.032718,0.000000,1.736071
LINE553,92.130792,-0.756130,0.000000,0.066420,0.000000,4.682792
LINE554,89.791333,-0.767018,0.000000,3.482479,0.000000,4.575051
LINE555,0.000000,-0.240318,0.000000,1.673137,61.682176,1.215397
LINE556,612.115648,-0.770293,735.958441,3.269889,310.235914,1.201701
LINE557,0.000000,2.539736,0.000000,1.692225,0.000000,-1.549626
LINE558,0.000000,0.638220,302.996900,3.241914,59.679437,1.214394
LINE559,0.000000,4.338893,0.000000,4.338893,0.000000,-1.390465
LINE560,92.803113,-0.748313,0.000000,3.834812,0.000000,-1.265692
LINE561,92.821679,-0.748264,0.000000,-0.007804,0.000000,4.700024
LINE562,92.130792,-0.756130,0.000000,0.843596,0.000000,4.558990
LINE563,89.791333,-0.767018,0.000000,3.232138,0.000000,4.466663
LINE564,612.115648,-0.770293,735.958441,3.269889,310.235914,1.201701
LINE565,0.000000,0.922982,0.000000,0.922982,0.000000,1.638136
LINE566,0.000000,0.652107,100.757876,3.241962,59.679437,1.214394
LINE567,0.000000,3.058042,0.000000,3.494384,0.000000,0.798294
LINE568,0.000000,3.811175,202.239023,3.241890,0.000000,1.180021
LINE569,92.803113,-0.748313,0.000000,3.592842,0.000000,-1.204433
LINE570,89.791333,-0.767018,0.000000,3.400047,0.000000,4.526998
LINE571,612.115648,-0.770293,735.958441,3.269889,310.235914,1.201701
LINE572,0.000000,0.605588,100.757876,3.241962,59.679437,1.214394
LINE573,0.000000,2.299586,0.000000,-0.488661,0.000000,-1.544638
LINE574,0.000000,3.900802,202.239023,3.241890,0.000000,1.235916
LINE575,92.803113,-0.748313,0.000000,3.418477,0.000000,-1.344855
LINE576,89.791333,-0.767018,0.000000,0.230223,0.000000,4.481326
LINE577,612.115648,-0.770293,735.958441,3.269889,310.235914,1.201701
LINE578,0.000000,-0.630604,100.757876,3.241962,59.679437,1.214394
LINE579,0.000000,0.929764,0.000000,2.690874,0.000000,-0.597881
LINE580,0.000000,0.837748,0.000000,-1.210971,0.000000,1.025167
LINE581,0.000000,3.829923,202.239023,3.241890,0.000000,1.269468
LINE582,92.803113,-0.748313,0.000000,3.439636,0.000000,-1.144935
LINE583,89.791333,-0.767018,0.000000,3.293796,0.000000,4.621509
LINE584,0.000000,-1.196271,94.466292,3.266969,0.000000,1.798464
LINE585,612.115648,-0.770293,641.492612,3.270319,310.235914,1.201701
LINE586,0.000000,-0.612413,100.757876,3.241962,59.679437,1.214394
LINE587,0.000000,4.265730,0.000000,4.265730,0.000000,1.180411
LINE588,0.000000,0.721874,0.000000,-1.218869,0.000000,1.066208
LINE589,0.000000,3.656314,202.239023,3.241890,0.000000,1.137140
LINE590,92.803113,-0.748313,0.000000,3.923379,0.000000,4.668738
LINE591,89.791333,-0.767018,0.000000,3.334841,0.000000,4.665141
LINE592,0.000000,-1.010952,94.466292,3.266969,0.000000,1.788194
LINE593,612.115648,-0.770293,641.492612,3.270319,310.235914,1.201701
LINE594,0.000000,-1.251127,100.757876,3.241962,0.000000,-1.268365
LINE595,0.000000,-0.295302,0.000000,3.346955,59.679437,1.214394
LINE596,0.000000,0.724445,0.000000,-0.814105,0.000000,1.141915
LINE597,0.000000,3.699906,202.239023,3.241890,0.000000,1.180594
LINE598,92.803113,-0.748313,0.000000,3.133426,0.000000,1.538952
LINE599,89.791333,-0.767018,0.000000,3.299921,0.000000,1.257088
LINE600,0.000000,-0.871286,94.466292,3.266969,0.000000,1.747582
LINE601,0.000000,2.930861,0.000000,2.426190,61.637169,1.207143
LINE602,612.115648,-0.770293,641.492612,3.270319,248.599884,1.200352
LINE603,0.000000,4.557844,100.757876,3.241962,0.000000,-1.302030
LINE604,0.000000,0.080767,0.000000,1.383415,0.000000,-1.433672
LINE605,0.000000,1.450111,0.000000,1.450111,0.000000,4.510708
LINE606,0.000000,-0.320206,0.000000,-0.792718,59.679437,1.214394
LINE607,0.000000,4.637043,0.000000,1.421221,0.000000,1.421221
LINE608,0.000000,0.397865,0.000000,-1.525371,0.000000,1.322036
LINE609,0.000000,3.700709,202.239023,3.241890,0.000000,1.165780
LINE610,92.803113,-0.748313,0.000000,-1.453112,0.000000,4.546746
LINE611,89.791333,-0.767018,0.000000,0.586791,0.000000,1.518878
LINE612,0.000000,-0.712225,94.466292,3.266969,0.000000,1.752394
LINE613,0.000000,0.518680,0.000000,0.008634,61.637169,1.207143
LINE614,612.115648,-0.770293,641.492612,3.270319,248.599884,1.200352
LINE615,0.000000,4.644870,100.757876,3.241962,0.000000,-1.544838
LINE616,0.000000,0.889148,0.000000,2.776884,0.000000,3.937530
LINE617,0.000000,0.532686,0.000000,2.890532,0.000000,3.632577
LINE618,0.000000,2.612076,0.000000,2.612076,59.679437,1.214394
LINE619,0.000000,-0.436648,0.000000,-0.671429,0.000000,1.154700
LINE620,0.000000,3.650111,202.239023,3.241890,0.000000,1.174233
LINE621,89.791333,-0.767018,0.000000,3.465168,0.000000,4.672750
LINE622,0.000000,-0.830260,94.466292,3.266969,0.000000,1.721165
LINE623,0.000000,2.769338,96.440494,3.263383,0.000000,1.523498
LINE624,612.115648,-0.770293,545.054847,3.271546,248.599884,1.200352
LINE625,0.000000,-1.009519,100.757876,3.241962,0.000000,-1.544838
LINE626,0.000000,0.436955,0.000000,-0.823651,0.000000,1.176073
LINE627,0.000000,3.682707,202.239023,3.241890,0.000000,1.199529
LINE628,89.791333,-0.767018,0.000000,2.692596,0.000000,4.638168
LINE629,0.000000,-1.230120,94.466292,3.266969,0.000000,1.720402
LINE630,0.000000,2.983333,96.440494,3.263383,0.000000,1.500391
LINE631,612.115648,-0.770293,545.054847,3.271546,248.599884,1.200352
LINE632,0.000000,4.644870,100.757876,3.241962,0.000000,-1.513960
LINE633,0.000000,1.115972,0.000000,3.603246,0.000000,1.219875
LINE634,0.000000,3.693202,202.239023,3.241890,0.000000,1.367709
LINE635,0.000000,-1.005798,94.466292,3.266969,0.000000,1.688607
LINE636,0.000000,2.450077,96.440494,3.263383,0.000000,3.894856
LINE637,612.115648,-0.770293,545.054847,3.271546,248.599884,1.200352
LINE638,0.000000,0.000000,100.757876,3.241962,0.000000,0.000000
LINE639,0.000000,3.979088,0.000000,4.197495,0.000000,1.237948
LINE640,0.000000,3.662900,202.239023,3.241890,0.000000,1.342527
LINE641,0.000000,-0.967739,94.466292,3.266969,0.000000,1.674596
LINE642,0.000000,-1.444637,96.440494,3.263383,0.000000,1.368502
LINE643,612.115648,-0.770293,545.054847,3.271546,248.599884,1.200352
LINE644,0.000000,3.860080,0.000000,3.632638,0.000000,1.105299
LINE645,0.000000,3.599069,202.239023,3.241890,0.000000,1.314806
LINE646,0.000000,-1.098841,94.466292,3.266969,0.000000,1.692850
LINE647,0.000000,-0.412622,96.440494,3.263383,0.000000,1.835922
LINE648,612.115648,-0.770293,545.054847,3.271546,248.599884,1.200352
LINE649,0.000000,2.739460,0.000000,3.197075,0.000000,1.386574
LINE650,0.000000,3.713732,202.239023,3.241890,0.000000,1.398251
LINE651,0.000000,-1.353141,94.466292,3.266969,0.000000,1.694448
LINE652,0.000000,2.250624,96.440494,3.263383,0.000000,1.901945
LINE653,612.115648,-0.770293,545.054847,3.271546,248.599884,1.200352
LINE654,0.000000,3.646178,0.000000,4.501807,0.000000,1.533117
LINE655,0.000000,3.932964,101.148770,3.241961,0.000000,1.528993
LINE656,0.000000,-0.258162,101.090254,3.241819,0.000000,1.519447
LINE657,0.000000,-1.107790,94.466292,3.266969,0.000000,1.699677
LINE658,0.000000,0.463767,96.440494,3.263383,0.000000,1.828894
LINE659,612.115648,-0.770293,545.054847,3.271546,248.599884,1.200352
LINE660,0.000000,2.745974,0.000000,-0.046078,0.000000,1.435503
LINE661,0.000000,3.657191,101.148770,3.241961,0.000000,-1.063242
LINE662,0.000000,4.185670,101.090254,3.241819,0.000000,1.499302
LINE663,0.000000,-1.042819,94.466292,3.266969,0.000000,1.705225
LINE664,0.000000,0.307984,96.440494,3.263383,0.000000,4.306074
LINE665,612.115648,-0.770293,545.054847,3.271546,248.599884,1.200352
LINE666,0.000000,2.451055,0.000000,3.517680,0.000000,1.520361
LINE667,0.000000,3.615863,101.148770,3.241961,0.000000,-1.547202
LINE668,0.000000,-1.364596,101.090254,3.241819,0.000000,1.570244
LINE669,0.000000,-1.093296,94.466292,3.266969,0.000000,1.705291
LINE670,0.000000,0.378989,96.440494,3.263383,0.000000,4.632128
LINE671,260.517752,-0.781960,0.000000,0.609184,0.000000,1.736503
LINE672,351.628760,-0.761650,545.054847,3.271546,248.599884,1.200352
LINE673,0.000000,2.726543,0.000000,3.248356,0.000000,1.677764
LINE674,0.000000,0.058680,101.148770,3.241961,0.000000,1.475862
LINE675,0.000000,2.034857,101.090254,3.241819,0.000000,1.516014
LINE676,0.000000,-0.901239,94.466292,3.266969,0.000000,1.703386
LINE677,0.000000,-0.376437,96.440494,3.263383,0.000000,1.612080
LINE678,260.517752,-0.781960,0.000000,0.516129,0.000000,1.787613
LINE679,351.628760,-0.761650,545.054847,3.271546,248.599884,1.200352
LINE680,0.000000,1.124938,0.000000,3.051856,0.000000,1.028054
LINE681,0.000000,3.776138,101.148770,3.241961,0.000000,-1.510896
LINE682,0.000000,-1.394517,94.466292,3.266969,0.000000,1.778186
LINE683,0.000000,-0.549441,96.440494,3.263383,0.000000,1.489493
LINE684,260.517752,-0.781960,0.000000,0.558265,0.000000,1.813233
LINE685,351.628760,-0.761650,545.054847,3.271546,248.599884,1.200352
LINE686,0.000000,-1.211055,94.466292,3.266969,0.000000,1.830580
LINE687,0.000000,2.281723,96.440494,3.263383,0.000000,1.830872
LINE688,260.517752,-0.781960,0.000000,0.554748,0.000000,1.891796
LINE689,0.000000,0.296092,0.000000,-0.277152,123.947691,1.205567
LINE690,351.628760,-0.761650,545.054847,3.271546,124.655553,1.195167
LINE691,0.000000,-1.372517,94.466292,3.266969,0.000000,2.336734
LINE692,260.517752,-0.781960,0.000000,0.773402,0.000000,1.849018
LINE693,0.000000,0.425956,0.000000,-0.271907,61.982762,1.205602
LINE694,0.000000,4.066943,0.000000,2.080188,61.964929,1.205531
LINE695,0.000000,3.808623,99.950846,3.262674,0.000000,1.528704
LINE696,351.628760,-0.761650,445.108818,3.273538,124.655553,1.195167
LINE697,0.000000,-1.304935,94.466292,3.266969,0.000000,2.253832
LINE698,260.517752,-0.781960,0.000000,0.649970,0.000000,1.940090
LINE699,0.000000,0.272964,0.000000,-0.219570,61.982762,1.205602
LINE700,0.000000,1.930829,0.000000,0.083208,61.964929,1.205531
LINE701,0.000000,2.890858,99.950846,3.262674,0.000000,1.797687
LINE702,351.628760,-0.761650,445.108818,3.273538,124.655553,1.195167
LINE703,0.000000,-1.255404,94.466292,3.266969,0.000000,2.312245
LINE704,260.517752,-0.781960,0.000000,0.675787,0.000000,2.383478
LINE705,0.000000,0.307732,0.000000,-0.203809,61.982762,1.205602
LINE706,351.628760,-0.761650,445.108818,3.273538,124.655553,1.195167
LINE707,0.000000,1.488567,0.000000,1.994781,0.000000,0.040148
LINE708,0.000000,-1.270649,94.466292,3.266969,0.000000,2.217292
LINE709,260.517752,-0.781960,0.000000,0.645249,0.000000,2.439665
LINE710,0.000000,0.327403,0.000000,-0.396102,61.982762,1.205602
LINE711,177.269906,-0.751600,445.108818,3.273538,124.655553,1.195167
LINE712,174.376906,-0.771866,0.000000,2.848830,0.000000,1.833859
LINE713,0.000000,2.070994,0.000000,1.927759,0.000000,-0.370106
LINE714,0.000000,-1.392342,94.466292,3.266969,0.000000,1.924327
LINE715,260.517752,-0.781960,0.000000,0.654479,0.000000,2.400453
LINE716,0.000000,0.514620,0.000000,-0.510791,61.982762,1.205602
LINE717,177.269906,-0.751600,445.108818,3.273538,124.655553,1.195167
LINE718,174.376906,-0.771866,0.000000,2.783855,0.000000,1.833689
LINE719,0.000000,2.045289,0.000000,2.227965,0.000000,0.870084
LINE720,0.000000,-1.100432,94.466292,3.266969,0.000000,1.991000
LINE721,260.517752,-0.781960,0.000000,0.681887,0.000000,2.317597
LINE722,0.000000,1.375277,0.000000,0.293804,61.982762,1.205602
LINE723,177.269906,-0.751600,230.497723,3.275940,124.655553,1.195167
LINE724,0.000000,-0.322612,214.612474,3.270959,0.000000,1.573794
LINE725,174.376906,-0.771866,0.000000,2.795145,0.000000,1.796829
LINE726,0.000000,2.111788,0.000000,2.493255,0.000000,1.073139
LINE727,0.000000,-0.857808,94.466292,3.266969,0.000000,1.788864
LINE728,260.517752,-0.781960,0.000000,0.697509,0.000000,2.307426
LINE729,0.000000,1.119702,0.000000,0.193047,61.982762,1.205602
LINE730,177.269906,-0.751600,230.497723,3.275940,124.655553,1.195167
LINE731,0.000000,-0.323923,214.612474,3.270959,0.000000,1.575139
LINE732,174.376906,-0.771866,0.000000,2.822434,0.000000,1.758024
LINE733,0.000000,1.712206,0.000000,2.395460,0.000000,0.846040
LINE734,0.000000,4.376959,94.466292,3.266969,0.000000,4.354942
LINE735,260.517752,-0.781960,0.000000,0.689843,0.000000,2.419806
LINE736,0.000000,1.970653,0.000000,-0.029508,61.982762,1.205602
LINE737,177.269906,-0.751600,230.497723,3.275940,124.655553,1.195167
LINE738,0.000000,-0.336883,214.612474,3.270959,0.000000,1.574032
LINE739,174.376906,-0.771866,0.000000,2.701165,0.000000,1.768664
LINE740,0.000000,1.346317,0.000000,2.154826,0.000000,4.591735
LINE741,0.000000,-1.461397,94.466292,3.266969,0.000000,1.567818
LINE742,260.517752,-0.781960,0.000000,0.716381,0.000000,2.531907
LINE743,0.000000,2.796356,0.000000,-0.728063,61.982762,1.205602
LINE744,177.269906,-0.751600,230.497723,3.275940,124.655553,1.195167
LINE745,0.000000,0.132309,107.358961,3.271079,0.000000,4.104843
LINE746,0.000000,-0.441707,107.253515,3.270838,0.000000,1.577219
LINE747,174.376906,-0.771866,0.000000,2.427354,0.000000,1.785527
LINE748,0.000000,1.200686,0.000000,2.331213,0.000000,1.115660
LINE749,0.000000,2.611674,94.466292,3.266969,0.000000,1.546585
LINE750,260.517752,-0.781960,0.000000,0.689442,0.000000,3.212364
LINE751,0.000000,0.165231,0.000000,-0.050851,61.982762,1.205602
LINE752,177.269906,-0.751600,230.497723,3.275940,0.000000,1.527608
LINE753,0.000000,-1.007590,0.000000,4.481647,124.655553,1.195167
LINE754,0.000000,-0.097767,107.358961,3.271079,0.000000,4.561500
LINE755,0.000000,-0.184630,107.253515,3.270838,0.000000,1.590560
LINE756,174.376906,-0.771866,0.000000,2.486811,0.000000,1.814531
LINE757,0.000000,1.019547,0.000000,2.162928,0.000000,-0.217847
LINE758,0.000000,2.603837,94.466292,3.266969,0.000000,1.439124
LINE759,260.517752,-0.781960,0.000000,0.638950,0.000000,3.170412
LINE760,0.000000,4.425247,0.000000,0.291873,61.982762,1.205602
LINE761,177.269906,-0.751600,230.497723,3.275940,0.000000,1.528996
LINE762,0.000000,-1.010747,0.000000,4.475340,124.655553,1.195167
LINE763,0.000000,-0.325657,107.253515,3.270838,0.000000,1.616843
LINE764,174.376906,-0.771866,0.000000,2.636881,0.000000,1.767391
LINE765,0.000000,1.543528,0.000000,2.103433,0.000000,-0.796234
LINE766,0.000000,3.809020,94.466292,3.266969,0.000000,1.563478
LINE767,260.517752,-0.781960,0.000000,0.643968,0.000000,2.524419
LINE768,0.000000,3.093238,0.000000,3.093238,61.982762,1.205602
LINE769,177.269906,-0.751600,230.497723,3.275940,0.000000,1.530381
LINE770,0.000000,0.242422,0.000000,0.518231,62.342589,1.195226
LINE771,0.000000,-1.080212,0.000000,4.372036,62.312964,1.195109
LINE772,0.000000,-0.331146,107.253515,3.270838,0.000000,1.617951
LINE773,174.376906,-0.771866,0.000000,2.634450,0.000000,1.769499
LINE774,0.000000,1.932647,0.000000,1.880429,0.000000,4.152687
LINE775,0.000000,3.620603,94.466292,3.266969,0.000000,1.573964
LINE776,260.517752,-0.781960,0.000000,0.668328,0.000000,2.552476
LINE777,0.000000,2.415708,0.000000,4.008313,61.982762,1.205602
LINE778,177.269906,-0.751600,230.497723,3.275940,0.000000,1.529652
LINE779,0.000000,4.140685,0.000000,0.324475,62.342589,1.195226
LINE780,0.000000,-0.402365,0.000000,4.199635,62.312964,1.195109
LINE781,0.000000,-0.211036,107.253515,3.270838,0.000000,1.630432
LINE782,174.376906,-0.771866,0.000000,2.765420,0.000000,1.735774
LINE783,0.000000,1.569135,0.000000,1.639236,0.000000,-0.850163
LINE784,0.000000,0.953265,94.466292,3.266969,0.000000,1.665006
LINE785,260.517752,-0.781960,0.000000,0.639158,0.000000,2.194410
LINE786,177.269906,-0.751600,230.497723,3.275940,0.000000,1.534279
LINE787,0.000000,4.019029,0.000000,-1.473294,62.312964,1.195109
LINE788,0.000000,-0.367907,107.253515,3.270838,0.000000,1.643328
LINE789,174.376906,-0.771866,0.000000,2.801618,0.000000,1.728465
LINE790,0.000000,0.662705,0.000000,2.805156,0.000000,-1.513404
LINE791,173.677736,-0.781961,0.000000,0.674727,0.000000,1.972068
LINE792,86.840016,-0.781957,0.000000,2.667580,0.000000,0.996240
LINE793,177.269906,-0.751600,230.497723,3.275940,0.000000,1.536405
LINE794,0.000000,3.759649,0.000000,-1.381204,62.312964,1.195109
LINE795,0.000000,2.120229,107.253515,3.270838,0.000000,1.914305
LINE796,174.376906,-0.771866,0.000000,2.803735,0.000000,1.724802
LINE797,0.000000,1.455605,0.000000,3.245886,0.000000,3.126198
LINE798,173.677736,-0.781961,0.000000,0.822043,0.000000,1.827554
LINE799,86.840016,-0.781957,0.000000,3.288866,0.000000,1.517648
LINE800,177.269906,-0.751600,0.000000,3.533798,0.000000,1.643748
LINE801,0.000000,-0.257733,230.497723,3.275940,0.000000,1.379514
LINE802,0.000000,3.454923,0.000000,-1.402033,62.312964,1.195109
LINE803,0.000000,4.052065,107.253515,3.270838,0.000000,1.434725
LINE804,174.376906,-0.771866,0.000000,2.672017,0.000000,1.711556
LINE805,0.000000,3.726164,0.000000,2.597812,0.000000,1.575572
LINE806,173.677736,-0.781961,0.000000,0.731744,0.000000,1.766607
LINE807,86.840016,-0.781957,0.000000,3.057220,0.000000,1.542115
LINE808,177.269906,-0.751600,0.000000,3.508557,0.000000,1.622351
LINE809,0.000000,-0.411473,230.497723,3.275940,0.000000,1.395410
LINE810,0.000000,2.012617,0.000000,4.339240,0.000000,0.233033
LINE811,0.000000,4.056306,0.000000,-0.920525,62.312964,1.195109
LINE812,0.000000,2.985475,107.253515,3.270838,0.000000,4.618950
LINE813,174.376906,-0.771866,0.000000,2.195119,0.000000,1.748694
LINE814,0.000000,3.748066,0.000000,0.048604,0.000000,1.368128
LINE815,173.677736,-0.781961,0.000000,0.605934,0.000000,1.920288
LINE816,86.840016,-0.781957,0.000000,4.415935,0.000000,1.553449
LINE817,177.269906,-0.751600,0.000000,3.415989,0.000000,1.603053
LINE818,0.000000,-0.509972,230.497723,3.275940,0.000000,1.392588
LINE819,0.000000,3.764832,0.000000,4.566115,0.000000,1.572453
LINE820,0.000000,-0.058446,0.000000,2.978826,62.312964,1.195109
LINE821,174.376906,-0.771866,0.000000,2.119868,0.000000,1.761038
LINE822,0.000000,-0.978253,0.000000,-0.324976,0.000000,1.851725
LINE823,173.677736,-0.781961,0.000000,1.357897,0.000000,1.586397
LINE824,177.269906,-0.751600,0.000000,3.695146,0.000000,1.632101
LINE825,0.000000,-0.325070,230.497723,3.275940,0.000000,1.396268
LINE826,0.000000,3.499602,0.000000,0.807322,0.000000,-0.010222
LINE827,0.000000,-0.906133,0.000000,-1.311769,62.312964,1.195109
LINE828,174.376906,-0.771866,0.000000,2.053468,0.000000,1.766168
LINE829,0.000000,-0.630658,0.000000,-0.745525,0.000000,1.451028
LINE830,173.677736,-0.781961,0.000000,1.716724,0.000000,1.621175
LINE831,177.269906,-0.751600,0.000000,2.888389,0.000000,1.690109
LINE832,0.000000,-0.220530,230.497723,3.275940,0.000000,1.405938
LINE833,0.000000,-0.384839,0.000000,0.643294,0.000000,4.123246
LINE834,0.000000,1.607160,0.000000,-0.277972,62.312964,1.195109
LINE835,174.376906,-0.771866,0.000000,2.237853,0.000000,1.758831
LINE836,173.677736,-0.781961,0.000000,1.105977,0.000000,1.669693
LINE837,177.269906,-0.751600,0.000000,0.875203,0.000000,4.632932
LINE838,0.000000,-0.268968,230.497723,3.275940,0.000000,1.394422
LINE839,0.000000,-0.576586,0.000000,3.393765,0.000000,4.125013
LINE840,174.376906,-0.771866,0.000000,2.235058,0.000000,1.758243
LINE841,173.677736,-0.781961,0.000000,2.744183,0.000000,1.618944
LINE842,177.269906,-0.751600,0.000000,0.896724,0.000000,4.685641
LINE843,0.000000,-0.125147,230.497723,3.275940,0.000000,1.461635
LINE844,0.000000,-0.598436,0.000000,3.590585,0.000000,1.410182
LINE845,0.000000,4.386353,0.000000,4.386353,0.000000,1.301035
LINE846,174.376906,-0.771866,0.000000,2.268149,0.000000,1.764012
LINE847,173.677736,-0.781961,0.000000,3.105946,0.000000,1.574283
LINE848,177.269906,-0.751600,0.000000,1.137589,0.000000,4.690942
LINE849,0.000000,-0.191874,230.497723,3.275940,0.000000,1.472038
LINE850,0.000000,-0.557507,0.000000,3.769127,0.000000,1.462055
LINE851,0.000000,2.012617,0.000000,4.339240,0.000000,0.233033
LINE852,174.376906,-0.771866,0.000000,1.859349,0.000000,1.777781
LINE853,173.677736,-0.781961,0.000000,-0.232799,0.000000,-1.554097
LINE854,177.269906,-0.751600,0.000000,1.364133,0.000000,1.228533
LINE855,0.000000,0.003789,230.497723,3.275940,0.000000,1.489390
LINE856,0.000000,-0.410538,0.000000,3.739082,0.000000,1.480932
LINE857,0.000000,2.641413,0.000000,-0.689134,0.000000,0.331360
LINE858,174.376906,-0.771866,0.000000,1.053938,0.000000,1.707487
LINE859,86.711001,-0.782324,0.000000,3.538119,0.000000,1.507321
LINE860,86.966747,-0.781599,0.000000,2.917199,0.000000,-1.163746
LINE861,177.269906,-0.751600,0.000000,1.317767,0.000000,1.216586
LINE862,0.000000,0.032150,230.497723,3.275940,0.000000,1.490778
LINE863,0.000000,-0.408173,0.000000,3.580785,0.000000,1.347523
LINE864,0.000000,4.448289,0.000000,1.504570,0.000000,1.271478
LINE865,174.376906,-0.771866,0.000000,1.738814,0.000000,2.096452
LINE866,177.269906,-0.751600,0.000000,1.233982,0.000000,1.294936
LINE867,0.000000,-0.067519,230.497723,3.275940,0.000000,1.472038
LINE868,0.000000,0.447073,0.000000,3.445686,0.000000,1.412099
LINE869,0.000000,-0.201681,0.000000,-0.201681,0.000000,2.996186
LINE870,174.376906,-0.771866,0.000000,1.550447,0.000000,4.375785
LINE871,177.269906,-0.751600,0.000000,1.298725,0.000000,1.309396
LINE872,0.000000,1.503278,115.375189,3.276217,0.000000,4.676110
LINE873,0.000000,0.396129,115.122543,3.275663,0.000000,-1.544838
LINE874,0.000000,0.136616,0.000000,3.200472,0.000000,1.682694
LINE875,0.000000,0.021625,0.000000,-1.549182,0.000000,4.578058
LINE876,174.376906,-0.771866,0.000000,1.555447,0.000000,1.767136
LINE877,177.269906,-0.751600,0.000000,1.422460,0.000000,1.347336
LINE878,0.000000,0.396129,115.375189,3.276217,0.000000,4.582452
LINE879,0.000000,-0.531166,115.122543,3.275663,0.000000,1.440859
LINE880,0.000000,0.662857,0.000000,-0.391643,0.000000,4.620566
LINE881,0.000000,0.588463,0.000000,-0.367043,0.000000,3.447674
LINE882,174.376906,-0.771866,0.000000,1.491136,0.000000,4.487931
LINE883,177.269906,-0.751600,0.000000,1.230486,0.000000,1.244990
LINE884,0.000000,2.610426,115.375189,3.276217,0.000000,4.686513
LINE885,0.000000,0.000000,115.122543,3.275663,0.000000,3.074074
LINE886,174.376906,-0.771866,0.000000,-0.155998,0.000000,3.415278
LINE887,88.653480,-0.751460,0.000000,1.704188,0.000000,1.238785
LINE888,88.616428,-0.751740,0.000000,3.701543,0.000000,1.480315
LINE889,0.000000,1.503278,115.375189,3.276217,0.000000,3.074074
LINE890,174.376906,-0.771866,0.000000,4.076657,0.000000,1.675206
LINE891,88.653480,-0.751460,0.000000,1.757976,0.000000,1.209493
LINE892,88.616428,-0.751740,0.000000,3.351521,0.000000,1.501974
LINE893,0.000000,0.000000,115.375189,3.276217,0.000000,3.074074
LINE894,87.366226,-0.771365,0.000000,-1.366109,0.000000,1.638551
LINE895,87.010702,-0.772369,0.000000,0.690263,0.000000,-1.560898
LINE896,88.653480,-0.751460,0.000000,1.430391,0.000000,1.355832
LINE897,88.616428,-0.751740,0.000000,0.747290,0.000000,1.412294
LINE898,0.000000,0.000000,115.375189,3.276217,0.000000,3.074074
LINE899,87.366226,-0.771365,0.000000,-0.863101,0.000000,1.654476
LINE900,88.653480,-0.751460,0.000000,0.887462,0.000000,1.557425
LINE901,88.653480,-0.751460,0.000000,1.197177,0.000000,1.544482
LINE902,88.653480,-0.751460,0.000000,0.583065,0.000000,1.557156
LINE903,88.653480,-0.751460,0.000000,-0.213335,0.000000,-1.566922
LINE904,88.653480,-0.751460,0.000000,3.430858,0.000000,4.711988
LINE905,88.653480,-0.751460,0.000000,4.287652,0.000000,1.341730
